[General]
network = Network
sim-time-limit = 200s

Network.nodeTx.gen.generationInterval = exponential(0.15)
Network.nodeTx.gen.packetByteSize = 12500
Network.nodeTx.transtx.bufferSize = 2000000
Network.nodeTx.transtx.serviceTime = exponential(0.1)
Network.queue0.bufferSize = 200
Network.queue1.bufferSize = 200
Network.queue0.serviceTime = exponential(0.1)
Network.queue1.serviceTime = exponential(0.1)
Network.nodeRx.transrx.bufferSize = 200
Network.nodeRx.transrx.serviceTime = exponential(0.1)
